[TITLE]


[OPTIONS]
;;Options            Value
;;------------------ ------------
FLOW_UNITS           CFS
INFILTRATION         GREEN_AMPT
FLOW_ROUTING         DYNWAVE
START_DATE           01/01/2016
START_TIME           00:00:00
REPORT_START_DATE    01/01/2016
REPORT_START_TIME    00:00:00
END_DATE             01/02/2016
END_TIME             06:00:00
SWEEP_START          01/01
SWEEP_END            12/31
DRY_DAYS             0
REPORT_STEP          00:05:00
WET_STEP             00:05:00
DRY_STEP             00:05:00
ROUTING_STEP         0.5
ALLOW_PONDING        NO
INERTIAL_DAMPING     FULL
VARIABLE_STEP        0.75
LENGTHENING_STEP     0
MIN_SURFAREA         1
NORMAL_FLOW_LIMITED  BOTH
SKIP_STEADY_STATE    NO
FORCE_MAIN_EQUATION  H-W
LINK_OFFSETS         DEPTH
MIN_SLOPE            0
MAX_TRIALS           8
HEAD_TOLERANCE       0.08
SYS_FLOW_TOL         5
LAT_FLOW_TOL         5
MINIMUM_STEP         0.5
THREADS              4

[EVAPORATION]
;;Type          Parameters
;;------------- ----------
CONSTANT     0.0
DRY_ONLY     NO

[RAINGAGES]
;;                      Rain      Time   Snow   Data      
;;Name                  Type      Intrvl Catch  Source    
;;--------------------- --------- ------ ------ ----------
100YR_24HR_NOAA_Chollas INTENSITY 0:05   1.0    TIMESERIES 100YR_24HR_NOAA_Chollas
LosPen24hr_Cumulative   CUMULATIVE 0:05   1.0    TIMESERIES LosPen24hr_Cumulative
SCS_6h_2.785in          INTENSITY 0:05   1.0    TIMESERIES SCS_6h_2.785in  
TypeB_24hr_Cumulative   CUMULATIVE 0:05   1.0    TIMESERIES TypeB_24hr_Cumulative
TypeB_6hr_Cumulative    CUMULATIVE 0:05   1.0    TIMESERIES TypeB_6hr_Cumulative

[SUBCATCHMENTS]
;;                                                 Total    Pcnt.             Pcnt.    Curb     Snow    
;;Name           Raingage         Outlet           Area     Imperv   Width    Slope    Length   Pack    
;;-------------- ---------------- ---------------- -------- -------- -------- -------- -------- --------
CarE4000         TypeB_24hr_Cumulative 585         15.374814 52.798  452.896  6.856    0                        
CarE4001         TypeB_24hr_Cumulative J20         12.922651 61.673  403.854  1.999    0                        
CarE4002         TypeB_24hr_Cumulative 712         2.695392 47.639   193.31   4.739    0                        
CarE4003         TypeB_24hr_Cumulative J53         2.88853  32.457   124.309  10.735   0                        
CarE4004         TypeB_24hr_Cumulative J30         1.51915  51.97    192.394  1.595    0                        
CarE4005         TypeB_24hr_Cumulative J29         10.590377 63.104  225.31   2.68     0                        
CarE4006         TypeB_24hr_Cumulative 599         7.902278 49.661   425.479  5.092    0                        
CarE4007         TypeB_24hr_Cumulative J17         9.515319 66.126   285.911  3.663    0                        
CarE4008         TypeB_24hr_Cumulative J44         19.255998 20.831  487.02   3.589    0                        
CarE4009         TypeB_24hr_Cumulative 587         0.82818  98.32    126.912  3.233    0                        
CarE4010         TypeB_24hr_Cumulative J38         3.640931 49.339   104.523  3.758    0                        
CarE4011         TypeB_24hr_Cumulative 1082        1.166149 8.451    107.141  5.424    0                        
CarE4012         TypeB_24hr_Cumulative J1          5.322175 59.196   364.814  4.413    0                        
CarE4013         TypeB_24hr_Cumulative 1089        7.052159 48.495   181.19   6.672    0                        
CarE4014         TypeB_24hr_Cumulative J12         5.806194 55.345   203.098  4.149    0                        
CarE4015         TypeB_24hr_Cumulative 1273        4.843707 31.444   235.755  7.965    0                        
CarE4016         TypeB_24hr_Cumulative J9          2.111951 66.34    219.467  1.341    0                        
CarE4017         TypeB_24hr_Cumulative J8          13.208037 58.876  503.756  3.743    0                        
CarE4018         TypeB_24hr_Cumulative J13         3.307454 62.54    140.213  3.318    0                        
CarE4019         TypeB_24hr_Cumulative J15         1.776314 74.588   139.768  1.271    0                        
CarE4020         TypeB_24hr_Cumulative 1108        0.512108 40.272   78.275   7.551    0                        
CarE4021         TypeB_24hr_Cumulative J5          17.361259 63.458  244.315  4.441    0                        
CarE4022         TypeB_24hr_Cumulative 1286        1.527585 61.847   202.578  2.779    0                        
CarE4023         TypeB_24hr_Cumulative 1091        9.84285  43.541   334.365  5.348    0                        
CarE4024         TypeB_24hr_Cumulative J21         2.021398 67.362   127.635  2.056    0                        
CarE4025         TypeB_24hr_Cumulative J19         17.258652 69.191  756.534  4.414    0                        
CarE4026         TypeB_24hr_Cumulative J38         7.464794 67.317   188.558  3.837    0                        
CarE4027         TypeB_24hr_Cumulative J43         0.524403 48.463   50.971   3.77     0                        
CarE4028         TypeB_24hr_Cumulative J20         1.070713 72.9     95.108   1.713    0                        
CarE4029         TypeB_24hr_Cumulative 710         17.647258 65.766  306.378  2.626    0                        
CarE4030         TypeB_24hr_Cumulative J23         13.088449 61.003  309.391  4.077    0                        
CarE4031         TypeB_24hr_Cumulative J51         0.265239 56.717   96.83    12.563   0                        
CarE4032         TypeB_24hr_Cumulative J21         2.469961 79.441   64.935   1.556    0                        
CarE4033         TypeB_24hr_Cumulative 573         20.79402 55.9     567.033  4.594    0                        
CarE4034         TypeB_24hr_Cumulative J42         0.952584 68.073   170.311  1.258    0                        
CarE4035         TypeB_24hr_Cumulative J16         12.959006 68.345  329.138  2.921    0                        
CarE4036         TypeB_24hr_Cumulative 596         0.418351 20.01    99.616   2.324    0                        
CarE4037         TypeB_24hr_Cumulative J44         0.00378  40       15.874   2.036    0                        
CarE4038         TypeB_24hr_Cumulative 587         0.017127 75.618   6.647    4.51     0                        
CarE4039         TypeB_24hr_Cumulative 587         0.292095 29.819   46.902   2.706    0                        
CarE4040         TypeB_24hr_Cumulative J44         0.010193 40       27.185   1.248    0                        
CarE4041         TypeB_24hr_Cumulative 587         0.002393 13.666   14.494   6.273    0                        
CarE4042         TypeB_24hr_Cumulative 706         2.890749 59.915   226.283  3.981    0                        
CarE4044         TypeB_24hr_Cumulative J43         0.001115 41.125   10.98    1.507    0                        
CarE4045         TypeB_24hr_Cumulative 596         0.658724 60.234   102.037  3.333    0                        
CarE4046         TypeB_24hr_Cumulative 712         0.172802 40.612   27.882   6.439    0                        
CarE4070         TypeB_24hr_Cumulative 712         0.271321 60.812   53.963   4.691    0                        

[SUBAREAS]
;;Subcatchment   N-Imperv   N-Perv     S-Imperv   S-Perv     PctZero    RouteTo    PctRouted 
;;-------------- ---------- ---------- ---------- ---------- ---------- ---------- ----------
CarE4000         0.018      0.048      0.05       0.1        25         OUTLET    
CarE4001         0.018      0.041      0.05       0.1        25         OUTLET    
CarE4002         0.018      0.046      0.05       0.1        25         OUTLET    
CarE4003         0.018      0.057      0.05       0.1        25         OUTLET    
CarE4004         0.018      0.047      0.05       0.1        25         OUTLET    
CarE4005         0.018      0.041      0.05       0.1        25         OUTLET    
CarE4006         0.018      0.049      0.05       0.1        25         OUTLET    
CarE4007         0.018      0.04       0.05       0.1        25         OUTLET    
CarE4008         0.018      0.048      0.05       0.1        25         OUTLET    
CarE4009         0.018      0.03       0.05       0.1        25         OUTLET    
CarE4010         0.018      0.043      0.05       0.1        25         OUTLET    
CarE4011         0.018      0.049      0.05       0.1        25         OUTLET    
CarE4012         0.018      0.038      0.05       0.1        25         OUTLET    
CarE4013         0.018      0.049      0.05       0.1        25         OUTLET    
CarE4014         0.018      0.04       0.05       0.1        25         OUTLET    
CarE4015         0.018      0.053      0.05       0.1        25         OUTLET    
CarE4016         0.018      0.038      0.05       0.1        25         OUTLET    
CarE4017         0.018      0.043      0.05       0.1        25         OUTLET    
CarE4018         0.018      0.045      0.05       0.1        25         OUTLET    
CarE4019         0.018      0.039      0.05       0.1        25         OUTLET    
CarE4020         0.018      0.056      0.05       0.1        25         OUTLET    
CarE4021         0.018      0.041      0.05       0.1        25         OUTLET    
CarE4022         0.018      0.043      0.05       0.1        25         OUTLET    
CarE4023         0.018      0.051      0.05       0.1        25         OUTLET    
CarE4024         0.018      0.043      0.05       0.1        25         OUTLET    
CarE4025         0.018      0.039      0.05       0.1        25         OUTLET    
CarE4026         0.018      0.039      0.05       0.1        25         OUTLET    
CarE4027         0.018      0.045      0.05       0.1        25         OUTLET    
CarE4028         0.018      0.039      0.05       0.1        25         OUTLET    
CarE4029         0.018      0.041      0.05       0.1        25         OUTLET    
CarE4030         0.018      0.042      0.05       0.1        25         OUTLET    
CarE4031         0.018      0.045      0.05       0.1        25         OUTLET    
CarE4032         0.018      0.036      0.05       0.1        25         OUTLET    
CarE4033         0.018      0.046      0.05       0.1        25         OUTLET    
CarE4034         0.018      0.042      0.05       0.1        25         OUTLET    
CarE4035         0.018      0.042      0.05       0.1        25         OUTLET    
CarE4036         0.018      0.049      0.05       0.1        25         OUTLET    
CarE4037         0.018      0.06       0.05       0.1        25         OUTLET    
CarE4038         0.018      0.035      0.05       0.1        25         OUTLET    
CarE4039         0.018      0.057      0.05       0.1        25         OUTLET    
CarE4040         0.018      0.06       0.05       0.1        25         OUTLET    
CarE4041         0.018      0.048      0.05       0.1        25         OUTLET    
CarE4042         0.018      0.042      0.05       0.1        25         OUTLET    
CarE4044         0.018      0.059      0.05       0.1        25         OUTLET    
CarE4045         0.018      0.042      0.05       0.1        25         OUTLET    
CarE4046         0.018      0.058      0.05       0.1        25         OUTLET    
CarE4070         0.018      0.047      0.05       0.1        25         OUTLET    

[INFILTRATION]
;;Subcatchment   Suction    HydCon     IMDmax    
;;-------------- ---------- ---------- ----------
CarE4000         3.5        0.13       0.347     
CarE4001         3.5        0.13       0.347     
CarE4002         3.5        0.13       0.347     
CarE4003         3.659      0.188      0.351     
CarE4004         3.5        0.13       0.347     
CarE4005         3.5        0.13       0.347     
CarE4006         3.5        0.13       0.347     
CarE4007         3.5        0.13       0.347     
CarE4008         3.5        0.13       0.347     
CarE4009         3.5        0.13       0.347     
CarE4010         3.5        0.13       0.347     
CarE4011         3.5        0.13       0.347     
CarE4012         3.5        0.13       0.347     
CarE4013         3.5        0.13       0.347     
CarE4014         3.5        0.13       0.347     
CarE4015         3.5        0.13       0.347     
CarE4016         3.5        0.13       0.347     
CarE4017         3.501      0.131      0.347     
CarE4018         4.108      0.35       0.362     
CarE4019         3.5        0.13       0.347     
CarE4020         3.5        0.13       0.347     
CarE4021         3.538      0.144      0.348     
CarE4022         4.288      0.415      0.367     
CarE4023         3.505      0.132      0.347     
CarE4024         3.5        0.13       0.347     
CarE4025         3.5        0.13       0.347     
CarE4026         3.5        0.13       0.347     
CarE4027         3.5        0.13       0.347     
CarE4028         3.5        0.13       0.347     
CarE4029         3.96       0.296      0.359     
CarE4030         3.518      0.137      0.347     
CarE4031         3.5        0.13       0.347     
CarE4032         3.5        0.13       0.347     
CarE4033         3.5        0.13       0.347     
CarE4034         3.5        0.13       0.347     
CarE4035         3.906      0.277      0.357     
CarE4036         3.5        0.13       0.347     
CarE4037         3.5        0.13       0.347     
CarE4038         3.5        0.13       0.347     
CarE4039         3.5        0.13       0.347     
CarE4040         3.5        0.13       0.347     
CarE4041         3.5        0.13       0.347     
CarE4042         3.5        0.13       0.347     
CarE4044         3.5        0.13       0.347     
CarE4045         3.5        0.13       0.347     
CarE4046         3.5        0.13       0.347     
CarE4070         3.5        0.13       0.347     

[JUNCTIONS]
;;               Invert     Max.       Init.      Surcharge  Ponded    
;;Name           Elev.      Depth      Depth      Depth      Area      
;;-------------- ---------- ---------- ---------- ---------- ----------
;HEADWALL: 9933 WILD GRAPE DR
1082             630.37     2.63       0          0          0         
;INLET: REAR OF 10222 & ROOKWOOD DR
1083             549.5      8.686      0          0          0         
;LUG: 75' FROM ROOKWOOD DR ON ATRIUM DR
1085             532.97     8.649      0          0          0         
;HEADWALL: 10385 ROOKWOOD DR
1086             544.5      4.791      0          0          0         
;OUTLET: 421' FROM WILD GRAPE ON ROOKWOOD
1089             576        4.352      0          0          0         
;HEADWALL:491' FROM ATRIUM ON ROOKWOOD DR
1091             552.24     4.705      0          0          0         
;CLEANOUT: 9740 APPALOOSA RD
1093             517.5      12.401     0          0          0         
;INLET:509' FR WILD GRAPE ON ARBORETUM PL
1096             627.1      6.543      0          0          0         
;CLEANOUT: 190' FROM APPALOOSA ON ATRIUM
1099             529.71     10.826     0          0          0         
;INLET:REAR OF 10608 & ROOKWOOD DR
1100             611.6      6.358      0          0          0         
;CLEAN:555N 375E WILLOW CREEK & APPALOOSA
1101             544.46     11.475     0          0          0         
;CLEANOUT:387' FROM ROOKWOOD ON ATRIUM DR
1102             562.1      6.436      0          0          0         
;CLEANOUT:340SW 64W ATRIUM & APPALOOSA RD
1103             515.39     11.1       0          0          0         
;CLEAN: 24' FROM ROOKWOOD DR ON ATRIUM DR
1106             535.05     7.073      0          0          0         
;INLET:258N 455E WILLOW CREEK & APPALOOSA
1108             549.4      10.504     0          0          0         
;OUT: 94' FROM ROOKWOOD ON WILD GRAPE DR
1109             627.832    2.168      0          0          0         
;INLET: 49' FROM ROOKWOOD DR ON ATRIUM DR
1110             535.5      9.828      0          0          0         
;CLEAN:663N 312E WILLOW CREEK & APPALOOSA
1111             542.71     10.509     0          0          0         
;CLEANOUT:41' FROM APPALOOSA ON ATRIUM DR
1117             527.72     11.638     0          0          0         
;CLEANOUT: 315' FROM ATRIUM ON APPALOOSA
1119             519.7      6.228      0          0          0         
;INLET: 338' FR ATRIUM DR ON APPALOOSA RD
1120             519.7      6.3        0          0          0         
1127             566        0.001      0          0          0         
1247             480        6.314      0          0          0         
;CLEAN:600N 138E WILLOW CREEK & APPALOOSA
1254             528.31     19.108     0          0          0         
;LUG: 49' FROM ROOKWOOD DR ON ATRIUM DR
1255             533.17     8.64       0          0          0         
;HEADWALL: 225' FR APPALOOSA ON ATRIUM DR
1259             530.38     4.593      0          0          0         
;HEADWALL:225' FROM ATRIUM ON ROOKWOOD DR
1262             540.68     6.137      0          0          0         
;CLEANOUT:135' FROM ROOKWOOD ON ATRIUM DR
1263             540.67     8.024      0          0          0         
;CLEANOUT: 258' FROM ATRIUM ON APPALOOSA
1264             518.16     8.507      0          0          0         
;CLEANOUT: 623' FROM ATRIUM ON APPALOOSA
1265             518.2      16.311     0          0          0         
;HEADWALL: 9700 AVIARY DR
1270             552        5.36       0          0          0         
;CLEANOUT: 54' FROM WILD GRAPE ON ATRIUM
1272             606.67     7.265      0          0          0         
;HEADWALL:245' FROM ROOKWOOD ON ATRIUM DR
1273             553.997    4.003      0          0          0         
;INLET: 57' FROM AVIARY DR ON ATRIUM DR
1276             618.74     7.142      0          0          0         
;CLEANOUT: 409' FR WILD GRAPE ON ROOKWOOD
1278             588.6      7.012      0          0          0         
;CLEAN:360N 370E WILLOW CREEK & APPALOOSA
1280             547        8.72       0          0          0         
;INLET: 33 SW ES ATRIUM DR & AVIARY DR
1283             620.11     8.119      0          0          0         
;INLET:185 N ES CAMTO DOHA & APPALOOSA RD
1285             541        6.132      0          0          0         
;HW: 457NE 207E WILLOW CREEK & APPALOOSA
1286             530        21.96      0          0          0         
;INLET: 76' FROM ROOKWOOD DR ON ATRIUM DR
1289             539.61     2.134      0          0          0         
;INLET: 316' FR ATRIUM DR ON APPALOOSA RD
1291             519.92     6.408      0          0          0         
;INLET:264' FR WILD GRAPE DR ON ATRIUM DR
1295             578.47     8.71       0          0          0         
1326             474        5.399      0          0          0         
1327             455        8.147      0          0          0         
1330             475        3.967      0          0          0         
1331             456        6.026      0          0          0         
;INLET: REAR OF 9820 SS & WILLOW CREEK RD
1370             426.3      50.562     0          0          0         
;OUT:240SW CUL DE SAC & WILLOW CREEK RD
569              462.57     3.534      0          0          0         
;HW: 306' FR OLD GROVE ON BUSINESSPK AV
570              493.72     8.217      0          0          0         
;HEADWALL: 10045 CARROLL CANYON RD
571              504.2      0.753      0          0          0         
;INLET:226' FR WILLOW CK ON BUSINESSPK A
572              483.54     13.968     0          0          0         
;OUT:226' FR WILLOW CK ON BUSINESSPARK AV
573              483        4.581      0          0          0         
;LUG: 731' FR BUSINESSPK ON WILLOW CREEK
574              473.98     11.731     0          0          0         
;LUG:314' FROM OLD GROVE ON BUSINESSPK AV
576              491.69     10.589     0          0          0         
;HW:674' FR BUSINESSPK ON WILLOW CREEK RD
577              478.412    10.256     0          0          0         
;OUT:425SW CUL DE SAC & WILLOW CREEK RD
578              460.26     12.589     0          0          0         
;LUG:126' FR CARROLL CYN ON BUSINESSPK AV
579              490.3      10.347     0          0          0         
;LUG: 717' FR BUSINESSPK ON WILLOW CREEK
580              475.392    11.76      0          0          0         
;HEADWALL: 9820 WILLOW CREEK RD
581              466.27     8.68       0          0          0         
;HW: 442' FR OLD GROVE ON BUSINESSPK AV
582              500.08     6.207      0          0          0         
;INLET:67' FR OLD GROVE ON BUSINESSPK AV
583              488.01     12.986     0          0          0         
;OUT: 75' FR BUSINESSPARK ON WILLOW CREEK
584              491.63     10.551     0          0          0         
;OUT: 379' FR BUSINESSPARK ON OLD GROVE
585              481.3      6.739      0          0          0         
;DROP: 303' FR OLD GROVE ON BUSINESSPK AV
586              490.79     11.257     0          0          0         
;HEADWALL: 10031 OLD GROVE RD
587              502        7.599      0          0          0         
;HW:225' FR WILLOW CREEK ON BUSINESSPK AV
590              487        5.066      0          0          0         
;OUT:212' FR BUSINESSPARK ON WILLOW CREEK
591              485        4.386      0          0          0         
;HW:765S 110E CARROLL CANYON RD & I-15 NB
592              466.74     7.266      0          0          0         
;LUG: 683' FR BUSINESSPK ON WILLOW CREEK
593              477.55     12.52      0          0          0         
;CLEAN: 70' FR CARROLL CYN ON BUSINESSPK
594              490.34     11.071     0          0          0         
;HEADWALL: 9939 OLD GROVE RD
596              510        0.172      0          0          0         
;HW: 335' FR OLD GROVE ON BUSINESSPK AV
597              491.3      10.966     0          0          0         
;LUG: REAR OF 9820 SS & WILLOW CREEK RD
598              464        11.101     0          0          0         
;OUTLET: 9747 BUSINESSPARK AV
599              496        5.128      0          0          0         
;CLEAN: 270' FR BUSINESSPARK ON OLD GROVE
601              483.26     20.739     0          0          0         
;INLET:337' FR OLD GROVE ON BUSINESSPK AV
602              497.8      6.076      0          0          0         
;OUT:753' FR BUSINESSPARK ON WILLOW CREEK
603              469        13.774     0          0          0         
;INLET:64' FR BUSINESSPK ON CARROLL CYN
627              491.2      10.803     0          0          0         
;LUG: 210' FR BUSINESSPK ON WILLOW CREEK
628              487.88     12.353     0          0          0         
;INLET:225' FR WILLOW CK ON BUSINESSPK A
629              483.19     16.024     0          0          0         
;INLET:77' FR BUSINESSPK ON WILLOW CREEK
630              492        9.114      0          0          0         
;INLET:70' FR OLD GROVE ON BUSINESSPK AV
631              491.88     10.234     0          0          0         
;HW:205' FR BUSINESSPK ON WILLOW CREEK RD
632              492.2      6.943      0          0          0         
;INLET:REAR OF 10100 & WILLOW CREEK
637              508.8      11.739     0          0          0         
;LUG: 10225 WILLOW CREEK RD
659              540        0          0          0          0         
;OUTLET: 10100 WILLOW CREEK RD
661              507.3      4.485      0          0          0         
;OUT: 495' FR WILLOW CREEK ON OLD GROVE
703              540        0.433      0          0          0         
;HEADWALL: 10225 WILLOW CREEK RD
704              542        0          0          0          0         
;HEADWALL: 10225 WILLOW CREEK RD
705              542        0          0          0          0         
;OUTLET: 10101 OLD GROVE RD
706              530        0          0          0          0         
;HEADWALL: 10113 CARROLL CANYON RD
710              528        0.004      0          0          0         
;HEADWALL: 10225 WILLOW CREEK RD
712              548        0          0          0          0         
;STREET
J1               648.001    0          0          0          0         
;STREET
J10              634.222    0          0          0          0         
;STREET
J11              627.925    0          0          0          0         
;STREET
J12              617.724    0          0          0          0         
;STREET
J13              526.055    0          0          0          0         
;STREET
J15              576.02     0          0          0          0         
J158             534.021    0          0          0          0         
;STREET
J16              566.484    0          0          0          0         
J160             548.427    0          0          0          0         
J161             551.752    0          0          0          0         
J162             554.019    0          0          0          0         
J163             558.718    0          0          0          0         
J164             560.104    0          0          0          0         
;STREET
J17              558.181    0          0          0          0         
;STREET
J18              543.876    0          0          0          0         
;STREET
J19              516.12     0          0          0          0         
;STREET
J2               627.943    0          0          0          0         
;STREET
J20              502.022    0          0          0          0         
;STREET
J21              499.647    0          0          0          0         
;STREET
J23              571.776    0          0          0          0         
;STREET
J24              513.461    0          0          0          0         
;STREET
J25              504.377    0          0          0          0         
;STREET
J26              500.712    0          0          0          0         
;STREET
J29              504.034    0          0          0          0         
;STREET
J3               625.555    0          0          0          0         
;STREET
J30              509.477    0          0          0          0         
;STREET
J31              505.133    0          0          0          0         
;STREET
J37              501.546    0          0          0          0         
;STREET
J38              521.747    0          0          0          0         
;STREET
J4               587.974    0          0          0          0         
;STREET
J40              513.194    0          0          0          0         
;STREET
J41              515.726    0          0          0          0         
;STREET
J42              502.453    0          0          0          0         
;STREET
J43              507.018    0          0          0          0         
;STREET
J44              502.615    0          0          0          0         
J45              504.104    5.722      0          0          0         
;STREET
J5               542.053    0          0          0          0         
;OVERFLOW
J51              628.249    0          0          0          0         
;OVERFLOW
J52              553.9      0          0          0          0         
;OVERFLOW
J53              571.717    0          0          0          0         
;OVERFLOW
J54              538.714    0          0          0          0         
J55              626.13     0          0          0          0         
;STREET
J6               539.068    0          0          0          0         
;STREET
J7               644.332    0          0          0          0         
;STREET
J8               566.385    4.035      0          0          0         
;STREET
J9               633.99     0          0          0          0         

[OUTFALLS]
;;               Invert     Outfall      Stage/Table      Tide
;;Name           Elev.      Type         Time Series      Gate Route To        
;;-------------- ---------- ------------ ---------------- ---- ----------------
1328             454        FREE                          NO                   

[CONDUITS]
;;               Inlet            Outlet                      Manning    Inlet      Outlet     Init.      Max.      
;;Name           Node             Node             Length     N          Offset     Offset     Flow       Flow      
;;-------------- ---------------- ---------------- ---------- ---------- ---------- ---------- ---------- ----------
;STREET
C1               J2               J3               94.33      0.01       0          0          0          0         
;STREET OVERLAND FLOW PATH. GEOM ASSUMED ON AERIAL.
C10              J15              J16              148.13     0.035      0          0          0          0         
;STREET
C11              J16              J13              812.39     0.01       0          0          0          0         
;STREET
C12              J17              J18              477.41     0.01       0          0          0          0         
;STREET
C13              J18              J19              523.77     0.01       0          0          0          0         
;STREET
C14              J19              J20              539.72     0.01       0          0          0          0         
;STREET
C15              J20              J21              430.12     0.01       0          0          0          0         
;OVERFLOW
C158             J54              J158             88.95      0.01       0          0          0          0         
;OVERFLOW
C158_1           J158             1259             52.14      0.01       0          0          0          0         
;STREET
C16              J23              J24              925.15     0.01       0          0          0          0         
;OVERFLOW
C160             J161             J160             93.92      0.01       0          0          0          0         
;OVERFLOW
C160_1           J160             J54              87.42      0.01       0          0          0          0         
;OVERFLOW